GMS MT3DMS Simulation
22 June 2022
        30         1       100         1         1         1
   d   m  kg
 T T T F T F F F F F
 1 0 0 0 0 0 0 0 0 0 0 0 0 0 0 0 0 0 0 0 0 0 0 0 0 0 0 0 0 0
         0 10.000000                              
         0 1.0000000                              
         0 30.000000                              
         0 1.0000000                              
         0 1.0000000                              
         0 1.0000000                              
         0 1.0000000                              
         0 1.0000000                              
         0 1.0000000                              
         0 1.0000000                              
         0 1.0000000                              
         0 1.0000000                              
         0 1.0000000                              
         0 1.0000000                              
         0 1.0000000                              
         0 1.0000000                              
         0 1.0000000                              
         0 1.0000000                              
         0 1.0000000                              
         0 1.0000000                              
         0 1.0000000                              
         0 1.0000000                              
         0 1.0000000                              
         0 1.0000000                              
         0 1.0000000                              
         0 1.0000000                              
         0 1.0000000                              
         0 1.0000000                              
         0 1.0000000                              
         0 1.0000000                              
         0 1.0000000                              
         0 1.0000000                              
         0 1.0000000                              
         0 0.3500000                              
         0 0.3500000                              
         0 0.3500000                              
         0 0.3500000                              
         0 0.3500000                              
         0 0.3500000                              
         0 0.3500000                              
         0 0.3500000                              
         0 0.3500000                              
         0 0.3500000                              
         0 0.3500000                              
         0 0.3500000                              
         0 0.3500000                              
         0 0.3500000                              
         0 0.3500000                              
         0 0.3500000                              
         0 0.3500000                              
         0 0.3500000                              
         0 0.3500000                              
         0 0.3500000                              
         0 0.3500000                              
         0 0.3500000                              
         0 0.3500000                              
         0 0.3500000                              
         0 0.3500000                              
         0 0.3500000                              
         0 0.3500000                              
         0 0.3500000                              
         0 0.3500000                              
         0 0.3500000                              
         0         1                              
         0         1                              
         0         1                              
         0         1                              
         0         1                              
         0         1                              
         0         1                              
         0         1                              
         0         1                              
         0         1                              
         0         1                              
         0         1                              
         0         1                              
         0         1                              
         0         1                              
         0         1                              
         0         1                              
         0         1                              
         0         1                              
         0         1                              
         0         1                              
         0         1                              
         0         1                              
         0         1                              
         0         1                              
         0         1                              
         0         1                              
         0         1                              
         0         1                              
         0         1                              
         0       0.0                              
         0       0.0                              
         0       0.0                              
         0       0.0                              
         0       0.0                              
         0       0.0                              
         0       0.0                              
         0       0.0                              
         0       0.0                              
         0       0.0                              
         0       0.0                              
         0       0.0                              
         0       0.0                              
         0       0.0                              
         0       0.0                              
         0       0.0                              
         0       0.0                              
         0       0.0                              
         0       0.0                              
         0       0.0                              
         0       0.0                              
         0       0.0                              
         0       0.0                              
         0       0.0                              
         0       0.0                              
         0       0.0                              
         0       0.0                              
         0       0.0                              
         0       0.0                              
         0       0.0                              
 -999.0000
         0         0         0         0         T
       801
 1.0000000 100.00000 200.00000 300.00000 400.00000 500.00000 600.00000 700.00000
 800.00000 900.00000 1000.0000 1100.0000 1200.0000 1300.0000 1400.0000 1500.0000
 1600.0000 1700.0000 1800.0000 1900.0000 2000.0000 2100.0000 2200.0000 2300.0000
 2400.0000 2500.0000 2600.0000 2700.0000 2800.0000 2900.0000 3000.0000 3100.0000
 3200.0000 3300.0000 3400.0000 3500.0000 3600.0000 3700.0000 3800.0000 3900.0000
 4000.0000 4100.0000 4200.0000 4300.0000 4400.0000 4500.0000 4600.0000 4700.0000
 4800.0000 4900.0000 5000.0000 5100.0000 5200.0000 5300.0000 5400.0000 5500.0000
 5600.0000 5700.0000 5800.0000 5900.0000 6000.0000 6100.0000 6200.0000 6300.0000
 6400.0000 6500.0000 6600.0000 6700.0000 6800.0000 6900.0000 7000.0000 7100.0000
 7200.0000 7300.0000 7400.0000 7500.0000 7600.0000 7700.0000 7800.0000 7900.0000
 8000.0000 8100.0000 8200.0000 8300.0000 8400.0000 8500.0000 8600.0000 8700.0000
 8800.0000 8900.0000 9000.0000 9100.0000 9200.0000 9300.0000 9400.0000 9500.0000
 9600.0000 9700.0000 9800.0000 9900.0000 10000.000 10100.000 10200.000 10300.000
 10400.000 10500.000 10600.000 10700.000 10800.000 10900.000 11000.000 11100.000
 11200.000 11300.000 11400.000 11500.000 11600.000 11700.000 11800.000 11900.000
 12000.000 12100.000 12200.000 12300.000 12400.000 12500.000 12600.000 12700.000
 12800.000 12900.000 13000.000 13100.000 13200.000 13300.000 13400.000 13500.000
 13600.000 13700.000 13800.000 13900.000 14000.000 14100.000 14200.000 14300.000
 14400.000 14500.000 14600.000 14700.000 14800.000 14900.000 15000.000 15100.000
 15200.000 15300.000 15400.000 15500.000 15600.000 15700.000 15800.000 15900.000
 16000.000 16100.000 16200.000 16300.000 16400.000 16500.000 16600.000 16700.000
 16800.000 16900.000 17000.000 17100.000 17200.000 17300.000 17400.000 17500.000
 17600.000 17700.000 17800.000 17900.000 18000.000 18100.000 18200.000 18300.000
 18400.000 18500.000 18600.000 18700.000 18800.000 18900.000 19000.000 19100.000
 19200.000 19300.000 19400.000 19500.000 19600.000 19700.000 19800.000 19900.000
 20000.000 20100.000 20200.000 20300.000 20400.000 20500.000 20600.000 20700.000
 20800.000 20900.000 21000.000 21100.000 21200.000 21300.000 21400.000 21500.000
 21600.000 21700.000 21800.000 21900.000 22000.000 22100.000 22200.000 22300.000
 22400.000 22500.000 22600.000 22700.000 22800.000 22900.000 23000.000 23100.000
 23200.000 23300.000 23400.000 23500.000 23600.000 23700.000 23800.000 23900.000
 24000.000 24100.000 24200.000 24300.000 24400.000 24500.000 24600.000 24700.000
 24800.000 24900.000 25000.000 25100.000 25200.000 25300.000 25400.000 25500.000
 25600.000 25700.000 25800.000 25900.000 26000.000 26100.000 26200.000 26300.000
 26400.000 26500.000 26600.000 26700.000 26800.000 26900.000 27000.000 27100.000
 27200.000 27300.000 27400.000 27500.000 27600.000 27700.000 27800.000 27900.000
 28000.000 28100.000 28200.000 28300.000 28400.000 28500.000 28600.000 28700.000
 28800.000 28900.000 29000.000 29100.000 29200.000 29300.000 29400.000 29500.000
 29600.000 29700.000 29800.000 29900.000 30000.000 30100.000 30200.000 30300.000
 30400.000 30500.000 30600.000 30700.000 30800.000 30900.000 31000.000 31100.000
 31200.000 31300.000 31400.000 31500.000 31600.000 31700.000 31800.000 31900.000
 32000.000 32100.000 32200.000 32300.000 32400.000 32500.000 32600.000 32700.000
 32800.000 32900.000 33000.000 33100.000 33200.000 33300.000 33400.000 33500.000
 33600.000 33700.000 33800.000 33900.000 34000.000 34100.000 34200.000 34300.000
 34400.000 34500.000 34600.000 34700.000 34800.000 34900.000 35000.000 35100.000
 35200.000 35300.000 35400.000 35500.000 35600.000 35700.000 35800.000 35900.000
 36000.000 36100.000 36200.000 36300.000 36400.000 36500.000 36600.000 36700.000
 36800.000 36900.000 37000.000 37100.000 37200.000 37300.000 37400.000 37500.000
 37600.000 37700.000 37800.000 37900.000 38000.000 38100.000 38200.000 38300.000
 38400.000 38500.000 38600.000 38700.000 38800.000 38900.000 39000.000 39100.000
 39200.000 39300.000 39400.000 39500.000 39600.000 39700.000 39800.000 39900.000
 40000.000 40100.000 40200.000 40300.000 40400.000 40500.000 40600.000 40700.000
 40800.000 40900.000 41000.000 41100.000 41200.000 41300.000 41400.000 41500.000
 41600.000 41700.000 41800.000 41900.000 42000.000 42100.000 42200.000 42300.000
 42400.000 42500.000 42600.000 42700.000 42800.000 42900.000 43000.000 43100.000
 43200.000 43300.000 43400.000 43500.000 43600.000 43700.000 43800.000 43900.000
 44000.000 44100.000 44200.000 44300.000 44400.000 44500.000 44600.000 44700.000
 44800.000 44900.000 45000.000 45100.000 45200.000 45300.000 45400.000 45500.000
 45600.000 45700.000 45800.000 45900.000 46000.000 46100.000 46200.000 46300.000
 46400.000 46500.000 46600.000 46700.000 46800.000 46900.000 47000.000 47100.000
 47200.000 47300.000 47400.000 47500.000 47600.000 47700.000 47800.000 47900.000
 48000.000 48100.000 48200.000 48300.000 48400.000 48500.000 48600.000 48700.000
 48800.000 48900.000 49000.000 49100.000 49200.000 49300.000 49400.000 49500.000
 49600.000 49700.000 49800.000 49900.000 50000.000 50100.000 50200.000 50300.000
 50400.000 50500.000 50600.000 50700.000 50800.000 50900.000 51000.000 51100.000
 51200.000 51300.000 51400.000 51500.000 51600.000 51700.000 51800.000 51900.000
 52000.000 52100.000 52200.000 52300.000 52400.000 52500.000 52600.000 52700.000
 52800.000 52900.000 53000.000 53100.000 53200.000 53300.000 53400.000 53500.000
 53600.000 53700.000 53800.000 53900.000 54000.000 54100.000 54200.000 54300.000
 54400.000 54500.000 54600.000 54700.000 54800.000 54900.000 55000.000 55100.000
 55200.000 55300.000 55400.000 55500.000 55600.000 55700.000 55800.000 55900.000
 56000.000 56100.000 56200.000 56300.000 56400.000 56500.000 56600.000 56700.000
 56800.000 56900.000 57000.000 57100.000 57200.000 57300.000 57400.000 57500.000
 57600.000 57700.000 57800.000 57900.000 58000.000 58100.000 58200.000 58300.000
 58400.000 58500.000 58600.000 58700.000 58800.000 58900.000 59000.000 59100.000
 59200.000 59300.000 59400.000 59500.000 59600.000 59700.000 59800.000 59900.000
 60000.000 60100.000 60200.000 60300.000 60400.000 60500.000 60600.000 60700.000
 60800.000 60900.000 61000.000 61100.000 61200.000 61300.000 61400.000 61500.000
 61600.000 61700.000 61800.000 61900.000 62000.000 62100.000 62200.000 62300.000
 62400.000 62500.000 62600.000 62700.000 62800.000 62900.000 63000.000 63100.000
 63200.000 63300.000 63400.000 63500.000 63600.000 63700.000 63800.000 63900.000
 64000.000 64100.000 64200.000 64300.000 64400.000 64500.000 64600.000 64700.000
 64800.000 64900.000 65000.000 65100.000 65200.000 65300.000 65400.000 65500.000
 65600.000 65700.000 65800.000 65900.000 66000.000 66100.000 66200.000 66300.000
 66400.000 66500.000 66600.000 66700.000 66800.000 66900.000 67000.000 67100.000
 67200.000 67300.000 67400.000 67500.000 67600.000 67700.000 67800.000 67900.000
 68000.000 68100.000 68200.000 68300.000 68400.000 68500.000 68600.000 68700.000
 68800.000 68900.000 69000.000 69100.000 69200.000 69300.000 69400.000 69500.000
 69600.000 69700.000 69800.000 69900.000 70000.000 70100.000 70200.000 70300.000
 70400.000 70500.000 70600.000 70700.000 70800.000 70900.000 71000.000 71100.000
 71200.000 71300.000 71400.000 71500.000 71600.000 71700.000 71800.000 71900.000
 72000.000 72100.000 72200.000 72300.000 72400.000 72500.000 72600.000 72700.000
 72800.000 72900.000 73000.000 73100.000 73200.000 73300.000 73400.000 73500.000
 73600.000 73700.000 73800.000 73900.000 74000.000 74100.000 74200.000 74300.000
 74400.000 74500.000 74600.000 74700.000 74800.000 74900.000 75000.000 75100.000
 75200.000 75300.000 75400.000 75500.000 75600.000 75700.000 75800.000 75900.000
 76000.000 76100.000 76200.000 76300.000 76400.000 76500.000 76600.000 76700.000
 76800.000 76900.000 77000.000 77100.000 77200.000 77300.000 77400.000 77500.000
 77600.000 77700.000 77800.000 77900.000 78000.000 78100.000 78200.000 78300.000
 78400.000 78500.000 78600.000 78700.000 78800.000 78900.000 79000.000 79100.000
 79200.000 79300.000 79400.000 79500.000 79600.000 79700.000 79800.000 79900.000
 80000.000
         0
         T
 80000.000       800 1.0000000
       0.0      1000 1.0000000       0.0
