MT3DSUP
BTN "ConfinedBaseCase.btn"
FLO "..\ConfinedBaseCase_MODFLOW\ConfinedBaseCase.hff"
ADV "ConfinedBaseCase.adv"
DSP "ConfinedBaseCase.dsp"
SSM "ConfinedBaseCase.ssm"
GCG "ConfinedBaseCase.gcg"
CHK Y
OUT "ConfinedBaseCase.out"
CON "ConfinedBaseCase.con"
DSS "ConfinedBaseCase.dss"
SPC "Salt" 1 1
RUNOPTIONS 0 "Undefined"
GMSTOB_OPTIONS 1 0
ORIG    0.0 0.0 0.0
ROTZ 0
LAYER   0
      1.0000 
DMAT 1
MPOR 1 0 0.3
MLD 1 0 0.0
HTOPEQ1 1
REFTIME  s 0 1900 1 1 0 0 0
UNITS "m"	"d"	"kg"	"lb"	"mg/l"
