MT3DSUP
BTN "UnconfinedBase.btn"
FLO "..\UnconfinedBase_MODFLOW\UnconfinedBase.hff"
ADV "UnconfinedBase.adv"
DSP "UnconfinedBase.dsp"
SSM "UnconfinedBase.ssm"
GCG "UnconfinedBase.gcg"
CHK Y
OUT "UnconfinedBase.out"
CON "UnconfinedBase.con"
DSS "UnconfinedBase.dss"
SPC "C" 1 1
RUNOPTIONS 0 "Undefined"
GMSTOB_OPTIONS 1 0
ORIG    0.0 0.0 0.0
ROTZ 0
LAYER   1
      1.0000       1.0000       1.0000       1.0000       1.0000       1.0000       1.0000       1.0000       1.0000       1.0000 
      1.0000       1.0000       1.0000       1.0000       1.0000       1.0000       1.0000       1.0000       1.0000       1.0000 
      1.0000       1.0000       1.0000       1.0000       1.0000       1.0000       1.0000       1.0000       1.0000       3.0000 
DMAT 1
MPOR 1 0 0.3
MLD 1 0 0.0
HTOPEQ1 1
REFTIME  s 0 1900 1 1 0 0 0
UNITS "m"	"d"	"kg"	"lb"	"mg/l"
